LTspice 24.1.7 for Windows
Circuit: C:\users\benrico\Documents\edesign-344\Draft2.net
Start Time: Sat Sep 20 13:56:43 2025
solver = Normal
Maximum thread count: 12
tnom = 27
temp = 138
method = trap
Direct Newton iteration for .op point succeeded.
Total elapsed time: 0.606 seconds.

Files loaded:
C:\users\benrico\Documents\edesign-344\Draft2.net
C:\users\benrico\AppData\Local\LTspice\lib\cmp\standard.dio
C:\users\benrico\AppData\Local\LTspice\lib\cmp\standard.bjt
C:\users\benrico\Documents\edesign-344\models.cir

