LTspice 24.1.7 for Windows
Circuit: C:\users\benrico\Documents\edesign-344\input-buffer-amp-current-transistor-designed.net
Start Time: Fri Oct  3 14:03:53 2025
solver = Normal
Maximum thread count: 12
tnom = 27
temp = 30
method = trap
Direct Newton iteration for .op point succeeded.
Total elapsed time: 6.259 seconds.

Files loaded:
C:\users\benrico\Documents\edesign-344\input-buffer-amp-current-transistor-designed.net
C:\users\benrico\AppData\Local\LTspice\lib\cmp\standard.dio
C:\users\benrico\AppData\Local\LTspice\lib\cmp\standard.bjt
C:\users\benrico\Documents\edesign-344\models.cir

