LTspice 24.1.7 for Windows
Circuit: C:\users\benrico\Documents\edesign-344\input-buffer-amp-current-transistor-designed.net
Start Time: Thu Oct 16 01:11:16 2025
solver = Normal
Maximum thread count: 12
tnom = 27
temp = 25
method = trap
Direct Newton iteration for .op point succeeded.
.step temp=25°
.step temp=75°
.step temp=125°
Total elapsed time: 5.631 seconds.

Files loaded:
C:\users\benrico\Documents\edesign-344\input-buffer-amp-current-transistor-designed.net
C:\users\benrico\AppData\Local\LTspice\lib\cmp\standard.dio
C:\users\benrico\AppData\Local\LTspice\lib\cmp\standard.bjt
C:\users\benrico\Documents\edesign-344\models.cir

