LTspice 24.1.7 for Windows
Circuit: C:\users\benrico\Documents\edesign-344\input-buffer-amp-current-designed.net
Start Time: Sat Sep 20 15:31:34 2025
solver = Normal
Maximum thread count: 12
tnom = 27
temp = 138
method = trap
Direct Newton iteration for .op point succeeded.
Total elapsed time: 0.570 seconds.

Files loaded:
C:\users\benrico\Documents\edesign-344\input-buffer-amp-current-designed.net
C:\users\benrico\AppData\Local\LTspice\lib\cmp\standard.dio
C:\users\benrico\AppData\Local\LTspice\lib\cmp\standard.bjt
C:\users\benrico\Documents\edesign-344\models.cir

