LTspice 24.1.7 for Windows
Circuit: C:\users\benrico\Documents\edesign-344\psu-stuff.net
Start Time: Thu Aug 14 19:49:10 2025
solver = Normal
Maximum thread count: 12
tnom = 27
temp = 27
method = trap
Per .tran options, skipping operating point for transient analysis.
Total elapsed time: 8.657 seconds.

Files loaded:
C:\users\benrico\Documents\edesign-344\psu-stuff.net
C:\users\benrico\AppData\Local\LTspice\lib\cmp\standard.dio
C:\users\benrico\Documents\edesign-344\models.cir
C:\users\benrico\AppData\Local\LTspice\lib\sub\NE555.sub

