LTspice 24.1.7 for Windows
Circuit: C:\users\benrico\Documents\edesign-344\square-and-triangles.net
Start Time: Fri Aug 15 11:56:24 2025
solver = Normal
Maximum thread count: 12
tnom = 27
temp = 27
method = trap
Early termination of direct N-R iteration.
Direct Newton iteration failed to find .op point.  (Use ".option noopiter" to skip.)
Starting Gmin stepping
Gmin = 10
vernier = 0.5
vernier = 0.25
vernier = 0.125
Gmin = 5.5165
vernier = 0.0625
vernier = 0.03125
vernier = 0.015625
vernier = 0.0078125
Gmin = 5.49501
vernier = 0.00390625
vernier = 0.00195312
vernier = 0.000976562
vernier = 0.000488281
Gmin = 5.50104
Gmin = 0
Gmin stepping failed

Starting source stepping with srcstepmethod=0
Source Step = 3.0303%
Source Step = 12.1212%
Source Step = 19.697%
Source Step = 27.2727%
Source Step = 34.8485%
Source Step = 42.4242%
vernier = 0.375
Source Step = 52.6515%
Source Step = 64.0152%
Source Step = 75.3788%
Source Step = 86.7424%
Source Step = 98.1061%
Source stepping succeeded in finding the operating point.

Total elapsed time: 5.471 seconds.

Files loaded:
C:\users\benrico\Documents\edesign-344\square-and-triangles.net
C:\users\benrico\AppData\Local\LTspice\lib\cmp\standard.dio
C:\users\benrico\AppData\Local\LTspice\lib\cmp\standard.bjt
C:\users\benrico\Documents\edesign-344\models.cir
C:\users\benrico\AppData\Local\LTspice\lib\sub\NE555.sub

