LTspice 24.1.7 for Windows
Circuit: C:\users\benrico\Documents\edesign-344\square-and-triangles-speeddd-filter.net
Start Time: Fri Aug 15 10:47:10 2025
solver = Normal
Maximum thread count: 12
tnom = 27
temp = 27
method = trap
Early termination of direct N-R iteration.
Direct Newton iteration failed to find .op point.  (Use ".option noopiter" to skip.)
Starting Gmin stepping
Gmin = 10
vernier = 0.5
vernier = 0.25
vernier = 0.125
Gmin = 5.5165
vernier = 0.0625
vernier = 0.03125
vernier = 0.015625
vernier = 0.0078125
Gmin = 5.49501
vernier = 0.00390625
vernier = 0.00195312
vernier = 0.000976562
vernier = 0.000488281
Gmin = 5.50104
Gmin = 0
Gmin stepping failed

Starting source stepping with srcstepmethod=0
Source Step = 3.0303%
Source Step = 7.38636%
Source Step = 9.2803%
Source Step = 11.1742%
Source Step = 13.0682%
Source Step = 14.9621%
vernier = 0.09375
Source Step = 17.4242%
Source Step = 20.2652%
Source Step = 23.1061%
Source Step = 25.947%
Source Step = 28.7879%
vernier = 0.140625
Source Step = 32.339%
Source Step = 36.6004%
Source Step = 40.8617%
Source Step = 45.1231%
Source Step = 49.3845%
vernier = 0.210938
Source Step = 54.4981%
Source Step = 60.8902%
Source Step = 67.2822%
Source Step = 73.6742%
Source Step = 80.0663%
vernier = 0.316406
Source Step = 87.4171%
Source Step = 97.0052%
Source stepping succeeded in finding the operating point.

.step x=1000

Simulation stopped by user.
Total elapsed time: 2.525 seconds.

Files loaded:
C:\users\benrico\Documents\edesign-344\square-and-triangles-speeddd-filter.net
C:\users\benrico\AppData\Local\LTspice\lib\cmp\standard.dio
C:\users\benrico\AppData\Local\LTspice\lib\cmp\standard.bjt
C:\users\benrico\Documents\edesign-344\models.cir
C:\users\benrico\AppData\Local\LTspice\lib\sub\NE555.sub

